<?xml version="1.0" encoding="UTF-8"?>

<!-- generated on 02/06/20 21:17:16 by Eclipse SUMO netconvert Version 1.3.1
<configuration xmlns:xsi="http://www.w3.org/2001/XMLSchema-instance" xsi:noNamespaceSchemaLocation="http://sumo.dlr.de/xsd/netconvertConfiguration.xsd">

    <input>
        <osm-files value="manhattan.osm"/>
    </input>

    <output>
        <output-file value="manhattan.net.xml"/>
    </output>

    <projection>
        <proj.utm value="true"/>
    </projection>

</configuration>
-->

<net version="1.3" junctionCornerDetail="5" limitTurnSpeed="5.50" xmlns:xsi="http://www.w3.org/2001/XMLSchema-instance" xsi:noNamespaceSchemaLocation="http://sumo.dlr.de/xsd/net_file.xsd">

    <location netOffset="-587448.11,-4511366.22" convBoundary="0.00,0.00,2963.99,1676.11" origBoundary="-73.963908,40.748022,-73.923992,40.763700" projParameter="+proj=utm +zone=18 +ellps=WGS84 +datum=WGS84 +units=m +no_defs"/>

    <type id="highway.bridleway" priority="1" numLanes="1" speed="2.78" allow="pedestrian" oneway="1" width="2.00"/>
    <type id="highway.bus_guideway" priority="1" numLanes="1" speed="27.78" allow="bus" oneway="1"/>
    <type id="highway.cycleway" priority="1" numLanes="1" speed="8.33" allow="bicycle" oneway="0" width="1.00"/>
    <type id="highway.footway" priority="1" numLanes="1" speed="2.78" allow="pedestrian" oneway="1" width="2.00"/>
    <type id="highway.ford" priority="1" numLanes="1" speed="2.78" allow="army" oneway="0"/>
    <type id="highway.living_street" priority="2" numLanes="1" speed="2.78" disallow="tram rail_urban rail rail_electric rail_fast ship" oneway="0"/>
    <type id="highway.motorway" priority="14" numLanes="2" speed="39.44" allow="private emergency authority army vip passenger hov taxi bus coach delivery truck trailer motorcycle evehicle custom1 custom2" oneway="1"/>
    <type id="highway.motorway_link" priority="9" numLanes="1" speed="22.22" allow="private emergency authority army vip passenger hov taxi bus coach delivery truck trailer motorcycle evehicle custom1 custom2" oneway="1"/>
    <type id="highway.path" priority="1" numLanes="1" speed="2.78" allow="pedestrian bicycle" oneway="1" width="2.00"/>
    <type id="highway.pedestrian" priority="1" numLanes="1" speed="2.78" allow="pedestrian" oneway="1" width="2.00"/>
    <type id="highway.primary" priority="12" numLanes="2" speed="27.78" disallow="tram rail_urban rail rail_electric rail_fast ship" oneway="0"/>
    <type id="highway.primary_link" priority="7" numLanes="1" speed="22.22" disallow="tram rail_urban rail rail_electric rail_fast ship" oneway="0"/>
    <type id="highway.raceway" priority="15" numLanes="2" speed="83.33" allow="vip" oneway="0"/>
    <type id="highway.residential" priority="3" numLanes="1" speed="13.89" disallow="tram rail_urban rail rail_electric rail_fast ship" oneway="0"/>
    <type id="highway.secondary" priority="11" numLanes="2" speed="27.78" disallow="tram rail_urban rail rail_electric rail_fast ship" oneway="0"/>
    <type id="highway.secondary_link" priority="6" numLanes="1" speed="22.22" disallow="tram rail_urban rail rail_electric rail_fast ship" oneway="0"/>
    <type id="highway.service" priority="1" numLanes="1" speed="5.56" allow="pedestrian delivery bicycle" oneway="0"/>
    <type id="highway.stairs" priority="1" numLanes="1" speed="1.39" allow="pedestrian" oneway="1" width="2.00"/>
    <type id="highway.step" priority="1" numLanes="1" speed="1.39" allow="pedestrian" oneway="1" width="2.00"/>
    <type id="highway.steps" priority="1" numLanes="1" speed="1.39" allow="pedestrian" oneway="1" width="2.00"/>
    <type id="highway.tertiary" priority="10" numLanes="1" speed="22.22" disallow="tram rail_urban rail rail_electric rail_fast ship" oneway="0"/>
    <type id="highway.tertiary_link" priority="5" numLanes="1" speed="22.22" disallow="tram rail_urban rail rail_electric rail_fast ship" oneway="0"/>
    <type id="highway.track" priority="1" numLanes="1" speed="5.56" disallow="tram rail_urban rail rail_electric rail_fast ship" oneway="0"/>
    <type id="highway.trunk" priority="13" numLanes="2" speed="27.78" disallow="pedestrian bicycle tram rail_urban rail rail_electric rail_fast ship" oneway="0"/>
    <type id="highway.trunk_link" priority="8" numLanes="1" speed="22.22" disallow="pedestrian bicycle tram rail_urban rail rail_electric rail_fast ship" oneway="0"/>
    <type id="highway.unclassified" priority="4" numLanes="1" speed="13.89" disallow="tram rail_urban rail rail_electric rail_fast ship" oneway="0"/>
    <type id="highway.unsurfaced" priority="1" numLanes="1" speed="8.33" disallow="tram rail_urban rail rail_electric rail_fast ship" oneway="0"/>
    <type id="railway.highspeed" priority="21" numLanes="1" speed="69.44" allow="rail_fast" oneway="1"/>
    <type id="railway.light_rail" priority="19" numLanes="1" speed="27.78" allow="rail_urban" oneway="1"/>
    <type id="railway.preserved" priority="16" numLanes="1" speed="27.78" allow="rail" oneway="1"/>
    <type id="railway.rail" priority="20" numLanes="1" speed="44.44" allow="rail" oneway="1"/>
    <type id="railway.subway" priority="18" numLanes="1" speed="27.78" allow="rail_urban" oneway="1"/>
    <type id="railway.tram" priority="17" numLanes="1" speed="13.89" allow="tram" oneway="1"/>

    <edge id=":2292073735_0" function="internal">
        <lane id=":2292073735_0_0" index="0" allow="rail_urban" speed="27.78" length="0.35" shape="1856.67,311.41 1856.77,311.44 1856.84,311.46 1856.91,311.47 1857.02,311.48"/>
    </edge>
    <edge id=":2292087077_0" function="internal">
        <lane id=":2292087077_0_0" index="0" allow="rail_urban" speed="27.78" length="0.24" shape="1910.14,326.58 1910.31,326.41"/>
    </edge>
    <edge id=":2292637604_0" function="internal">
        <lane id=":2292637604_0_0" index="0" allow="rail_urban" speed="27.78" length="0.10" shape="1810.09,277.79 1810.09,277.79"/>
    </edge>
    <edge id=":2355624814_0" function="internal">
        <lane id=":2355624814_0_0" index="0" allow="private emergency authority army vip passenger hov taxi bus coach delivery truck trailer motorcycle evehicle custom1 custom2" speed="22.22" length="6.71" shape="2008.28,283.70 2006.64,282.58 2005.54,281.75 2004.42,280.98 2002.69,280.01"/>
    </edge>
    <edge id=":2355624814_1" function="internal">
        <lane id=":2355624814_1_0" index="0" allow="bicycle" speed="8.33" length="7.49" width="1.00" shape="2008.89,280.33 2002.44,284.13"/>
    </edge>
    <edge id=":2355624814_2" function="internal">
        <lane id=":2355624814_2_0" index="0" allow="bicycle" speed="2.04" length="1.46" width="1.00" shape="2008.89,280.33 2008.44,280.31 2008.21,280.17 2008.18,279.89 2008.37,279.48"/>
    </edge>
    <edge id=":2355624814_3" function="internal">
        <lane id=":2355624814_3_0" index="0" allow="bicycle" speed="8.33" length="7.45" width="1.00" shape="2001.95,283.25 2008.37,279.48"/>
    </edge>
    <edge id=":2355624814_4" function="internal">
        <lane id=":2355624814_4_0" index="0" allow="bicycle" speed="2.04" length="1.46" width="1.00" shape="2001.95,283.25 2002.40,283.29 2002.63,283.45 2002.64,283.72 2002.44,284.13"/>
    </edge>
    <edge id=":2468400255_0" function="internal">
        <lane id=":2468400255_0_0" index="0" allow="bicycle" speed="2.04" length="1.46" width="1.00" shape="1722.89,444.14 1722.44,444.10 1722.21,443.95 1722.20,443.67 1722.41,443.27"/>
    </edge>
    <edge id=":2468400257_0" function="internal">
        <lane id=":2468400257_0_0" index="0" disallow="tram rail_urban rail rail_electric rail_fast ship" speed="22.22" length="0.29" shape="1725.89,449.59 1725.64,449.73"/>
    </edge>
    <edge id=":2468400261_0" function="internal">
        <lane id=":2468400261_0_0" index="0" allow="bicycle" speed="8.33" length="5.03" width="1.00" shape="1881.55,352.98 1877.43,355.85"/>
    </edge>
    <edge id=":2468400261_1" function="internal">
        <lane id=":2468400261_1_0" index="0" allow="bicycle" speed="2.04" length="0.73" width="1.00" shape="1881.55,352.98 1881.10,352.97 1880.86,352.83"/>
    </edge>
    <edge id=":2468400261_4" function="internal">
        <lane id=":2468400261_4_0" index="0" allow="bicycle" speed="2.04" length="0.73" width="1.00" shape="1880.86,352.83 1880.82,352.56 1881.00,352.14"/>
    </edge>
    <edge id=":2468400261_2" function="internal">
        <lane id=":2468400261_2_0" index="0" allow="bicycle" speed="8.33" length="5.08" width="1.00" shape="1876.83,355.05 1881.00,352.14"/>
    </edge>
    <edge id=":2468400261_3" function="internal">
        <lane id=":2468400261_3_0" index="0" allow="bicycle" speed="2.04" length="0.73" width="1.00" shape="1876.83,355.05 1877.28,355.03 1877.53,355.15"/>
    </edge>
    <edge id=":2468400261_5" function="internal">
        <lane id=":2468400261_5_0" index="0" allow="bicycle" speed="2.04" length="0.73" width="1.00" shape="1877.53,355.15 1877.58,355.43 1877.43,355.85"/>
    </edge>
    <edge id=":2468400263_0" function="internal">
        <lane id=":2468400263_0_0" index="0" disallow="tram rail_urban rail rail_electric rail_fast ship" speed="22.22" length="4.73" shape="1871.83,368.02 1867.71,370.34"/>
    </edge>
    <edge id=":2468400264_0" function="internal">
        <lane id=":2468400264_0_0" index="0" disallow="tram rail_urban rail rail_electric rail_fast ship" speed="22.22" length="4.95" shape="1886.32,360.19 1881.97,362.55"/>
    </edge>
    <edge id=":276069369_0" function="internal">
        <lane id=":276069369_0_0" index="0" allow="private emergency authority army vip passenger hov taxi bus coach delivery truck trailer motorcycle evehicle custom1 custom2" speed="39.44" length="0.10" shape="1876.59,337.14 1876.67,337.09"/>
        <lane id=":276069369_0_1" index="1" allow="private emergency authority army vip passenger hov taxi bus coach delivery truck trailer motorcycle evehicle custom1 custom2" speed="39.44" length="0.10" shape="1875.05,334.34 1874.96,334.39"/>
    </edge>
    <edge id=":276204253_0" function="internal">
        <lane id=":276204253_0_0" index="0" allow="private emergency authority army vip passenger hov taxi bus coach delivery truck trailer motorcycle evehicle custom1 custom2" speed="15.19" length="15.19" shape="1996.29,277.81 1992.80,277.29 1989.50,277.05 1985.90,277.59 1981.56,279.44"/>
    </edge>
    <edge id=":276204253_1" function="internal">
        <lane id=":276204253_1_0" index="0" allow="private emergency authority army vip passenger hov taxi bus coach delivery truck trailer motorcycle evehicle custom1 custom2" speed="33.61" length="15.10" shape="1994.88,272.39 1981.56,279.44"/>
        <lane id=":276204253_1_1" index="1" allow="private emergency authority army vip passenger hov taxi bus coach delivery truck trailer motorcycle evehicle custom1 custom2" speed="33.61" length="15.10" shape="1993.38,269.56 1980.02,276.64"/>
    </edge>
    <edge id=":276204425_0" function="internal">
        <lane id=":276204425_0_0" index="0" allow="private emergency authority army vip passenger hov taxi bus coach delivery truck trailer motorcycle evehicle custom1 custom2" speed="39.44" length="0.30" shape="1869.08,322.94 1869.34,322.80"/>
    </edge>
    <edge id=":2963821768_0" function="internal">
        <lane id=":2963821768_0_0" index="0" allow="bicycle" speed="2.04" length="1.46" width="1.00" shape="2227.47,157.58 2227.92,157.62 2228.15,157.78 2228.16,158.06 2227.95,158.46"/>
    </edge>
    <edge id=":3569401962_0" function="internal">
        <lane id=":3569401962_0_0" index="0" disallow="tram rail_urban rail rail_electric rail_fast ship" speed="11.18" length="0.10" shape="2650.56,825.52 2650.56,825.52"/>
    </edge>
    <edge id=":3569401968_0" function="internal">
        <lane id=":3569401968_0_0" index="0" disallow="tram rail_urban rail rail_electric rail_fast ship" speed="11.18" length="0.30" shape="2660.25,841.61 2660.41,841.87"/>
    </edge>
    <edge id=":3569401989_0" function="internal">
        <lane id=":3569401989_0_0" index="0" disallow="tram rail_urban rail rail_electric rail_fast ship" speed="11.18" length="0.30" shape="2752.32,994.59 2752.47,994.84"/>
    </edge>
    <edge id=":3569402097_0" function="internal">
        <lane id=":3569402097_0_0" index="0" disallow="tram rail_urban rail rail_electric rail_fast ship" speed="11.18" length="0.30" shape="2761.48,1009.81 2761.64,1010.07"/>
    </edge>
    <edge id=":3632330419_0" function="internal">
        <lane id=":3632330419_0_0" index="0" allow="bicycle" speed="8.33" length="0.25" width="1.00" shape="1966.61,294.03 1966.39,294.15"/>
    </edge>
    <edge id=":3632330419_1" function="internal">
        <lane id=":3632330419_1_0" index="0" allow="bicycle" speed="8.33" length="0.27" width="1.00" shape="1965.90,293.28 1966.15,293.15"/>
    </edge>
    <edge id=":3785649265_0" function="internal">
        <lane id=":3785649265_0_0" index="0" allow="private emergency authority army vip passenger hov taxi bus coach delivery truck trailer motorcycle evehicle custom1 custom2" speed="39.44" length="0.37" shape="1815.91,363.65 1815.85,363.80 1815.81,363.91 1815.77,364.01 1815.70,364.16"/>
        <lane id=":3785649265_0_1" index="1" allow="private emergency authority army vip passenger hov taxi bus coach delivery truck trailer motorcycle evehicle custom1 custom2" speed="39.44" length="0.37" shape="1812.87,362.62 1812.86,362.67 1812.84,362.71 1812.83,362.74 1812.81,362.79"/>
    </edge>
    <edge id=":42808193_0" function="internal">
        <lane id=":42808193_0_0" index="0" disallow="tram rail_urban rail rail_electric rail_fast ship" speed="25.00" length="14.51" shape="2113.09,434.04 2111.41,431.15 2110.15,428.34 2108.66,425.20 2106.27,421.25"/>
    </edge>
    <edge id=":42808193_1" function="internal">
        <lane id=":42808193_1_0" index="0" disallow="tram rail_urban rail rail_electric rail_fast ship" speed="7.30" length="11.62" shape="2113.09,434.04 2111.68,431.19 2111.52,428.57 2112.62,426.18 2114.96,424.03"/>
    </edge>
    <edge id=":42808193_2" function="internal">
        <lane id=":42808193_2_0" index="0" disallow="tram rail_urban rail rail_electric rail_fast ship" speed="6.50" length="9.03" shape="2102.16,430.84 2103.99,429.17 2104.84,427.32 2104.72,425.28 2103.63,423.06"/>
    </edge>
    <edge id=":42808193_3" function="internal">
        <lane id=":42808193_3_0" index="0" disallow="tram rail_urban rail rail_electric rail_fast ship" speed="20.84" length="14.52" shape="2103.96,433.48 2107.63,430.68 2110.16,428.29 2112.35,426.13 2114.96,424.03"/>
    </edge>
    <edge id=":42808195_0" function="internal">
        <lane id=":42808195_0_0" index="0" disallow="tram rail_urban rail rail_electric rail_fast ship" speed="6.65" length="8.61" shape="2014.97,293.23 2013.37,291.43 2011.60,290.47 2009.66,290.35 2007.54,291.06"/>
    </edge>
    <edge id=":42808195_1" function="internal">
        <lane id=":42808195_1_0" index="0" allow="private emergency authority army vip passenger hov taxi bus coach delivery truck trailer motorcycle evehicle custom1 custom2" speed="21.07" length="11.40" shape="2017.62,291.42 2015.53,288.71 2013.71,287.06 2011.69,285.78 2009.01,284.16"/>
    </edge>
    <edge id=":42808195_2" function="internal">
        <lane id=":42808195_2_0" index="0" disallow="tram rail_urban rail rail_electric rail_fast ship" speed="22.22" length="13.31" shape="2019.01,284.31 2007.54,291.06"/>
    </edge>
    <edge id=":42815805_0" function="internal">
        <lane id=":42815805_0_0" index="0" disallow="tram rail_urban rail rail_electric rail_fast ship" speed="11.18" length="0.30" shape="2589.75,878.94 2589.59,878.69"/>
    </edge>
    <edge id=":42815807_0" function="internal">
        <lane id=":42815807_0_0" index="0" disallow="tram rail_urban rail rail_electric rail_fast ship" speed="11.18" length="0.30" shape="2655.13,833.10 2655.28,833.35"/>
    </edge>
    <edge id=":42817418_0" function="internal">
        <lane id=":42817418_0_0" index="0" disallow="tram rail_urban rail rail_electric rail_fast ship" speed="6.50" length="9.03" shape="2339.55,484.37 2337.89,482.53 2336.04,481.67 2334.01,481.78 2331.78,482.87"/>
    </edge>
    <edge id=":42817418_1" function="internal">
        <lane id=":42817418_1_0" index="0" disallow="tram rail_urban rail rail_electric rail_fast ship" speed="11.18" length="11.21" shape="2339.55,484.37 2333.26,475.09"/>
    </edge>
    <edge id=":42817424_0" function="internal">
        <lane id=":42817424_0_0" index="0" disallow="tram rail_urban rail rail_electric rail_fast ship" speed="11.18" length="11.11" shape="2243.32,343.15 2237.09,333.95"/>
    </edge>
    <edge id=":42817424_1" function="internal">
        <lane id=":42817424_1_0" index="0" disallow="tram rail_urban rail rail_electric rail_fast ship" speed="6.47" length="8.95" shape="2243.32,343.15 2242.24,340.94 2242.13,338.93 2242.98,337.09 2244.80,335.45"/>
    </edge>
    <edge id=":42817424_2" function="internal">
        <lane id=":42817424_2_0" index="0" disallow="tram rail_urban rail rail_electric rail_fast ship" speed="6.50" length="8.99" shape="2235.60,341.69 2237.42,340.04 2238.28,338.20 2238.17,336.17 2237.09,333.95"/>
    </edge>
    <edge id=":42817424_3" function="internal">
        <lane id=":42817424_3_0" index="0" disallow="tram rail_urban rail rail_electric rail_fast ship" speed="13.89" length="11.12" shape="2235.60,341.69 2244.80,335.45"/>
    </edge>
    <edge id=":42817428_0" function="internal">
        <lane id=":42817428_0_0" index="0" disallow="tram rail_urban rail rail_electric rail_fast ship" speed="6.59" length="8.72" shape="2156.53,214.40 2154.92,212.59 2153.13,211.66 2151.15,211.61 2148.99,212.43"/>
    </edge>
    <edge id=":42817428_1" function="internal">
        <lane id=":42817428_1_0" index="0" disallow="tram rail_urban rail rail_electric rail_fast ship" speed="22.22" length="10.59" shape="2158.22,207.24 2148.99,212.43"/>
    </edge>
    <edge id=":42818573_0" function="internal">
        <lane id=":42818573_0_0" index="0" disallow="tram rail_urban rail rail_electric rail_fast ship" speed="6.51" length="9.04" shape="2208.61,573.81 2206.95,571.97 2205.10,571.11 2203.06,571.22 2200.84,572.30"/>
    </edge>
    <edge id=":42818573_1" function="internal">
        <lane id=":42818573_1_0" index="0" disallow="tram rail_urban rail rail_electric rail_fast ship" speed="22.22" length="11.21" shape="2208.61,573.81 2202.31,564.53"/>
    </edge>
    <edge id=":42818573_2" function="internal">
        <lane id=":42818573_2_0" index="0" disallow="tram rail_urban rail rail_electric rail_fast ship" speed="13.89" length="11.21" shape="2210.10,565.99 2200.84,572.30"/>
    </edge>
    <edge id=":42818573_3" function="internal">
        <lane id=":42818573_3_0" index="0" disallow="tram rail_urban rail rail_electric rail_fast ship" speed="6.51" length="9.04" shape="2210.10,565.99 2207.88,567.09 2205.85,567.21 2203.99,566.36 2202.31,564.53"/>
    </edge>
    <edge id=":42833328_0" function="internal">
        <lane id=":42833328_0_0" index="0" disallow="tram rail_urban rail rail_electric rail_fast ship" speed="11.18" length="0.30" shape="2860.35,1174.10 2860.50,1174.36"/>
    </edge>
    <edge id=":42833332_0" function="internal">
        <lane id=":42833332_0_0" index="0" disallow="tram rail_urban rail rail_electric rail_fast ship" speed="11.18" length="0.30" shape="2756.61,1001.71 2756.76,1001.97"/>
    </edge>
    <edge id=":42833340_0" function="internal">
        <lane id=":42833340_0_0" index="0" disallow="tram rail_urban rail rail_electric rail_fast ship" speed="11.18" length="0.29" shape="2573.29,697.14 2573.44,697.38"/>
    </edge>
    <edge id=":42833363_0" function="internal">
        <lane id=":42833363_0_0" index="0" disallow="tram rail_urban rail rail_electric rail_fast ship" speed="11.18" length="10.59" shape="2303.22,289.76 2309.36,298.38"/>
    </edge>
    <edge id=":42833363_1" function="internal">
        <lane id=":42833363_1_0" index="0" disallow="tram rail_urban rail rail_electric rail_fast ship" speed="6.53" length="8.76" shape="2301.69,297.14 2303.85,296.09 2305.85,295.94 2307.69,296.71 2309.36,298.38"/>
    </edge>
    <edge id=":42861161_0" function="internal">
        <lane id=":42861161_0_0" index="0" disallow="tram rail_urban rail rail_electric rail_fast ship" speed="6.35" length="9.04" shape="1905.90,280.10 1907.87,278.56 1908.82,276.78 1908.75,274.77 1907.65,272.52"/>
    </edge>
    <edge id=":42861161_1" function="internal">
        <lane id=":42861161_1_0" index="0" disallow="tram rail_urban rail rail_electric rail_fast ship" speed="22.22" length="11.18" shape="1905.90,280.10 1915.65,274.63"/>
    </edge>
    <edge id=":42861196_0" function="internal">
        <lane id=":42861196_0_0" index="0" disallow="tram rail_urban rail rail_electric rail_fast ship" speed="3.90" length="2.57" shape="2141.26,612.56 2140.62,612.87 2140.04,612.90 2139.51,612.66 2139.04,612.14"/>
    </edge>
    <edge id=":42861200_0" function="internal">
        <lane id=":42861200_0_0" index="0" disallow="tram rail_urban rail rail_electric rail_fast ship" speed="13.89" length="13.89" shape="2047.68,478.55 2039.86,467.07"/>
    </edge>
    <edge id=":42861200_1" function="internal">
        <lane id=":42861200_1_0" index="0" disallow="tram rail_urban rail rail_electric rail_fast ship" speed="6.49" length="9.00" shape="2047.68,478.55 2046.58,476.34 2046.46,474.31 2047.32,472.46 2049.14,470.80"/>
    </edge>
    <edge id=":42861200_2" function="internal">
        <lane id=":42861200_2_0" index="0" disallow="tram rail_urban rail rail_electric rail_fast ship" speed="6.39" length="8.64" shape="2038.11,474.45 2039.95,472.81 2040.85,471.03 2040.82,469.12 2039.86,467.07"/>
    </edge>
    <edge id=":42861200_3" function="internal">
        <lane id=":42861200_3_0" index="0" disallow="tram rail_urban rail rail_electric rail_fast ship" speed="27.78" length="11.17" shape="2038.11,474.45 2047.34,468.15"/>
        <lane id=":42861200_3_1" index="1" disallow="tram rail_urban rail rail_electric rail_fast ship" speed="27.78" length="11.17" shape="2039.91,477.09 2049.14,470.80"/>
    </edge>
    <edge id=":42861204_0" function="internal">
        <lane id=":42861204_0_0" index="0" disallow="tram rail_urban rail rail_electric rail_fast ship" speed="6.59" length="8.79" shape="1947.69,330.88 1946.06,329.06 1944.26,328.13 1942.27,328.10 1940.10,328.97"/>
    </edge>
    <edge id=":42861204_1" function="internal">
        <lane id=":42861204_1_0" index="0" disallow="tram rail_urban rail rail_electric rail_fast ship" speed="22.22" length="10.70" shape="1949.39,323.66 1940.10,328.97"/>
    </edge>
    <edge id=":42872016_0" function="internal">
        <lane id=":42872016_0_0" index="0" disallow="tram rail_urban rail rail_electric rail_fast ship" speed="5.89" length="7.68" shape="2086.63,247.49 2085.33,248.63 2084.87,250.12 2085.24,251.97 2086.44,254.17"/>
    </edge>
    <edge id=":42872016_1" function="internal">
        <lane id=":42872016_1_0" index="0" disallow="tram rail_urban rail rail_electric rail_fast ship" speed="22.22" length="9.38" shape="2086.63,247.49 2078.42,252.02"/>
    </edge>
    <edge id=":42872024_0" function="internal">
        <lane id=":42872024_0_0" index="0" disallow="tram rail_urban rail rail_electric rail_fast ship" speed="6.51" length="9.02" shape="2171.40,378.55 2173.07,380.37 2174.92,381.23 2176.96,381.11 2179.18,380.02"/>
    </edge>
    <edge id=":42872024_1" function="internal">
        <lane id=":42872024_1_0" index="0" disallow="tram rail_urban rail rail_electric rail_fast ship" speed="13.89" length="11.19" shape="2171.40,378.55 2177.71,387.79"/>
    </edge>
    <edge id=":42872024_2" function="internal">
        <lane id=":42872024_2_0" index="0" disallow="tram rail_urban rail rail_electric rail_fast ship" speed="13.89" length="11.19" shape="2169.94,386.33 2179.18,380.02"/>
    </edge>
    <edge id=":42872024_3" function="internal">
        <lane id=":42872024_3_0" index="0" disallow="tram rail_urban rail rail_electric rail_fast ship" speed="6.50" length="4.28" shape="2169.94,386.33 2172.15,385.23 2173.96,385.13"/>
    </edge>
    <edge id=":42872024_4" function="internal">
        <lane id=":42872024_4_0" index="0" disallow="tram rail_urban rail rail_electric rail_fast ship" speed="6.50" length="4.74" shape="2173.96,385.13 2174.19,385.11 2176.04,385.96 2177.71,387.79"/>
    </edge>
    <edge id=":42872027_0" function="internal">
        <lane id=":42872027_0_0" index="0" disallow="tram rail_urban rail rail_electric rail_fast ship" speed="6.50" length="9.03" shape="2275.67,520.97 2273.84,522.63 2272.99,524.48 2273.10,526.52 2274.20,528.75"/>
    </edge>
    <edge id=":42872027_1" function="internal">
        <lane id=":42872027_1_0" index="0" disallow="tram rail_urban rail rail_electric rail_fast ship" speed="13.89" length="11.21" shape="2275.67,520.97 2266.42,527.29"/>
    </edge>
    <edge id=":42872027_2" function="internal">
        <lane id=":42872027_2_0" index="0" disallow="tram rail_urban rail rail_electric rail_fast ship" speed="13.89" length="11.20" shape="2267.88,519.49 2274.20,528.75"/>
    </edge>
    <edge id=":42872027_3" function="internal">
        <lane id=":42872027_3_0" index="0" disallow="tram rail_urban rail rail_electric rail_fast ship" speed="6.51" length="4.30" shape="2267.88,519.49 2268.97,521.71 2269.08,523.53"/>
    </edge>
    <edge id=":42872027_4" function="internal">
        <lane id=":42872027_4_0" index="0" disallow="tram rail_urban rail rail_electric rail_fast ship" speed="6.51" length="4.74" shape="2269.08,523.53 2269.09,523.75 2268.24,525.61 2266.42,527.29"/>
    </edge>
    <edge id=":42895311_0" function="internal">
        <lane id=":42895311_0_0" index="0" disallow="tram rail_urban rail rail_electric rail_fast ship" speed="6.51" length="9.03" shape="1976.13,510.00 1977.80,511.82 1979.66,512.67 1981.69,512.55 1983.91,511.46"/>
    </edge>
    <edge id=":42895311_1" function="internal">
        <lane id=":42895311_1_0" index="0" disallow="tram rail_urban rail rail_electric rail_fast ship" speed="13.89" length="14.39" shape="1976.13,510.00 1984.26,521.87"/>
    </edge>
    <edge id=":42895311_2" function="internal">
        <lane id=":42895311_2_0" index="0" disallow="tram rail_urban rail rail_electric rail_fast ship" speed="27.78" length="11.19" shape="1974.67,517.78 1983.91,511.46"/>
        <lane id=":42895311_2_1" index="1" disallow="tram rail_urban rail rail_electric rail_fast ship" speed="27.78" length="11.19" shape="1976.48,520.42 1985.72,514.10"/>
    </edge>
    <edge id=":42895311_4" function="internal">
        <lane id=":42895311_4_0" index="0" disallow="tram rail_urban rail rail_electric rail_fast ship" speed="6.50" length="9.02" shape="1976.48,520.42 1978.70,519.32 1980.73,519.20 1982.59,520.05 1984.26,521.87"/>
    </edge>
    <edge id=":42920889_0" function="internal">
        <lane id=":42920889_0_0" index="0" disallow="tram rail_urban rail rail_electric rail_fast ship" speed="6.18" length="8.93" shape="1881.83,362.61 1879.82,364.04 1878.86,365.74 1878.97,367.72 1880.13,369.97"/>
    </edge>
    <edge id=":42920889_1" function="internal">
        <lane id=":42920889_1_0" index="0" disallow="tram rail_urban rail rail_electric rail_fast ship" speed="22.22" length="11.17" shape="1881.83,362.61 1872.00,367.92"/>
    </edge>
    <edge id=":42920889_2" function="internal">
        <lane id=":42920889_2_0" index="0" disallow="tram rail_urban rail rail_electric rail_fast ship" speed="13.89" length="11.19" shape="1873.63,360.87 1880.13,369.97"/>
    </edge>
    <edge id=":42920889_3" function="internal">
        <lane id=":42920889_3_0" index="0" disallow="tram rail_urban rail rail_electric rail_fast ship" speed="6.11" length="8.46" shape="1873.63,360.87 1874.69,362.93 1874.78,364.79 1873.88,366.46 1872.00,367.92"/>
    </edge>
    <edge id=":42920892_0" function="internal">
        <lane id=":42920892_0_0" index="0" disallow="tram rail_urban rail rail_electric rail_fast ship" speed="6.71" length="9.13" shape="1840.40,310.86 1842.14,312.87 1844.02,313.93 1846.03,314.06 1848.19,313.25"/>
    </edge>
    <edge id=":42920892_1" function="internal">
        <lane id=":42920892_1_0" index="0" disallow="tram rail_urban rail rail_electric rail_fast ship" speed="18.06" length="11.72" shape="1840.40,310.86 1842.00,313.67 1843.00,316.11 1844.03,318.53 1845.67,321.31"/>
    </edge>
    <edge id=":42920892_2" function="internal">
        <lane id=":42920892_2_0" index="0" disallow="tram rail_urban rail rail_electric rail_fast ship" speed="3.65" length="2.53" shape="1840.40,310.86 1840.41,312.31 1839.97,313.08 1839.78,313.11"/>
    </edge>
    <edge id=":42920892_6" function="internal">
        <lane id=":42920892_6_0" index="0" disallow="tram rail_urban rail rail_electric rail_fast ship" speed="3.65" length="2.15" shape="1839.78,313.11 1839.08,313.20 1837.75,312.66"/>
    </edge>
    <edge id=":42920892_3" function="internal">
        <lane id=":42920892_3_0" index="0" disallow="tram rail_urban rail rail_electric rail_fast ship" speed="6.11" length="8.29" shape="1836.83,319.76 1838.43,318.43 1839.12,316.80 1838.89,314.88 1837.75,312.66"/>
    </edge>
    <edge id=":42920892_4" function="internal">
        <lane id=":42920892_4_0" index="0" disallow="tram rail_urban rail rail_electric rail_fast ship" speed="22.22" length="13.09" shape="1836.83,319.76 1848.19,313.25"/>
    </edge>
    <edge id=":42920892_5" function="internal">
        <lane id=":42920892_5_0" index="0" disallow="tram rail_urban rail rail_electric rail_fast ship" speed="7.06" length="10.03" shape="1836.83,319.76 1839.45,318.67 1841.80,318.57 1843.87,319.45 1845.67,321.31"/>
    </edge>
    <edge id=":42920894_0" function="internal">
        <lane id=":42920894_0_0" index="0" disallow="tram rail_urban rail rail_electric rail_fast ship" speed="3.65" length="4.67" shape="1793.58,247.36 1793.58,245.92 1794.01,245.14 1794.90,245.02 1796.24,245.57"/>
    </edge>
    <edge id=":4457117585_0" function="internal">