<?xml version="1.0" encoding="UTF-8"?>

<!-- generated on 02/06/20 15:26:43 by Eclipse SUMO netedit Version 1.3.1
<configuration xmlns:xsi="http://www.w3.org/2001/XMLSchema-instance" xsi:noNamespaceSchemaLocation="http://sumo.dlr.de/xsd/netconvertConfiguration.xsd">

    <input>
        <sumo-net-file value="C:\Users\victo\OneDrive\Final%20year%20project%20-%20fyp%20-%20dissertation\simulation\sumo%20demo\my_net.net.xml"/>
    </input>

    <output>
        <output-file value="C:\Users\victo\OneDrive\Final%20year%20project%20-%20fyp%20-%20dissertation\simulation\sumo%20demo\my_net.net.xml"/>
    </output>

    <processing>
        <geometry.max-grade.fix value="false"/>
        <offset.disable-normalization value="true"/>
        <opposites.guess.fix-lengths value="true"/>
        <lefthand value="false"/>
    </processing>

    <junctions>
        <no-turnarounds value="true"/>
        <junctions.corner-detail value="5"/>
        <junctions.limit-turn-speed value="5.5"/>
        <rectangular-lane-cut value="false"/>
    </junctions>

    <pedestrian>
        <walkingareas value="false"/>
    </pedestrian>

</configuration>
-->

<net version="1.3" junctionCornerDetail="5" limitTurnSpeed="5.50" xmlns:xsi="http://www.w3.org/2001/XMLSchema-instance" xsi:noNamespaceSchemaLocation="http://sumo.dlr.de/xsd/net_file.xsd">

    <location netOffset="0.00,0.00" convBoundary="-500.00,0.00,150.00,200.00" origBoundary="-10000000000.00,-10000000000.00,10000000000.00,10000000000.00" projParameter="!"/>

    <edge id=":n2_0" function="internal">
        <lane id=":n2_0_0" index="0" speed="8.25" length="9.78" shape="-252.47,-4.80 -249.94,-4.50 -247.79,-3.58 -246.01,-2.06 -244.60,0.06"/>
    </edge>
    <edge id=":n2_1" function="internal">
        <lane id=":n2_1_0" index="0" speed="6.70" length="6.22" shape="-252.47,-1.60 -250.86,-1.41 -249.49,-0.83 -248.36,0.14 -247.46,1.50"/>
    </edge>
    <edge id=":n3_0" function="internal">
        <lane id=":n3_0_0" index="0" speed="5.74" length="9.18" shape="-153.73,181.81 -152.19,184.06 -150.53,184.92 -148.74,184.37 -146.83,182.44"/>
    </edge>
    <edge id=":n3_1" function="internal">
        <lane id=":n3_1_0" index="0" speed="6.65" length="12.85" shape="-153.73,181.81 -151.43,185.38 -149.09,187.00 -146.70,186.65 -144.27,184.36"/>
    </edge>
    <edge id=":n3_2" function="internal">
        <lane id=":n3_2_0" index="0" speed="8.16" length="20.04" shape="-156.59,183.24 -153.09,188.58 -149.44,190.86 -145.64,190.10 -141.71,186.28"/>
    </edge>
    <edge id=":n4_0" function="internal">
        <lane id=":n4_0_0" index="0" speed="7.68" length="15.80" shape="-6.40,-4.80 -3.20,-8.00 0.00,-9.07 3.20,-8.00 6.40,-4.80"/>
    </edge>
    <edge id=":n4_1" function="internal">
        <lane id=":n4_1_0" index="0" speed="6.09" length="9.48" shape="-3.84,-2.88 -1.92,-4.80 -0.00,-5.44 1.92,-4.80 3.84,-2.88"/>
    </edge>
    <edge id=":n4_2" function="internal">
        <lane id=":n4_2_0" index="0" speed="3.91" length="3.16" shape="-1.28,-0.96 -0.64,-1.60 0.00,-1.81 0.64,-1.60 1.28,-0.96"/>
    </edge>

    <edge id="1to2" from="n1" to="n2" priority="-1" type="3L45">
        <lane id="1to2_0" index="0" speed="45.00" length="247.53" shape="-500.00,-8.00 -252.47,-8.00"/>
        <lane id="1to2_1" index="1" speed="45.00" length="247.53" shape="-500.00,-4.80 -252.47,-4.80"/>
        <lane id="1to2_2" index="2" speed="45.00" length="247.53" shape="-500.00,-1.60 -252.47,-1.60"/>
    </edge>
    <edge id="2to3" from="n2" to="n3" priority="-1" type="2L15">
        <lane id="2to3_0" index="0" speed="15.00" length="203.20" shape="-244.60,0.06 -153.73,181.81"/>
        <lane id="2to3_1" index="1" speed="15.00" length="203.20" shape="-247.46,1.50 -156.59,183.24"/>
    </edge>
    <edge id="3to4" from="n3" to="n4" priority="-1" type="3L30">
        <lane id="3to4_0" index="0" speed="30.00" length="234.04" shape="-146.83,182.44 -6.40,-4.80"/>
        <lane id="3to4_1" index="1" speed="30.00" length="234.04" shape="-144.27,184.36 -3.84,-2.88"/>
        <lane id="3to4_2" index="2" speed="30.00" length="234.04" shape="-141.71,186.28 -1.28,-0.96"/>
    </edge>
    <edge id="out" from="n4" to="n5" priority="-1" type="3L30">
        <lane id="out_0" index="0" speed="30.00" length="250.00" shape="6.40,-4.80 156.40,195.20"/>
        <lane id="out_1" index="1" speed="30.00" length="250.00" shape="3.84,-2.88 153.84,197.12"/>
        <lane id="out_2" index="2" speed="30.00" length="250.00" shape="1.28,-0.96 151.28,199.04"/>
    </edge>

    <junction id="n1" type="dead_end" x="-500.00" y="0.00" incLanes="" intLanes="" shape="-500.00,0.00 -500.00,-9.60"/>
    <junction id="n2" type="priority" x="-250.00" y="0.00" incLanes="1to2_0 1to2_1 1to2_2" intLanes=":n2_0_0 :n2_1_0" shape="-248.89,2.21 -243.17,-0.65 -244.67,-3.39 -246.19,-5.62 -247.73,-7.36 -249.29,-8.61 -250.87,-9.35 -252.47,-9.60 -252.47,0.00 -250.98,0.25 -250.34,0.55 -249.78,0.98 -249.30,1.54">
        <request index="0" response="00" foes="00" cont="0"/>
        <request index="1" response="00" foes="00" cont="0"/>
    </junction>
    <junction id="n3" type="priority" x="-150.00" y="200.00" incLanes="2to3_0 2to3_1" intLanes=":n3_0_0 :n3_1_0 :n3_2_0" shape="-140.43,187.24 -148.11,181.48 -149.64,182.86 -150.35,182.98 -151.04,182.73 -151.68,182.10 -152.30,181.10 -158.02,183.96 -155.30,188.51 -152.50,191.45 -149.61,192.80 -146.64,192.54 -143.57,190.69">
        <request index="0" response="000" foes="000" cont="0"/>
        <request index="1" response="000" foes="000" cont="0"/>
        <request index="2" response="000" foes="000" cont="0"/>
    </junction>
    <junction id="n4" type="priority" x="0.00" y="0.00" incLanes="3to4_0 3to4_1 3to4_2" intLanes=":n4_0_0 :n4_1_0 :n4_2_0" shape="0.00,0.00 7.68,-5.76 5.12,-8.60 2.56,-10.31 0.00,-10.88 -2.56,-10.31 -5.12,-8.60 -7.68,-5.76">
        <request index="0" response="000" foes="000" cont="0"/>
        <request index="1" response="000" foes="000" cont="0"/>
        <request index="2" response="000" foes="000" cont="0"/>
    </junction>
    <junction id="n5" type="dead_end" x="150.00" y="200.00" incLanes="out_0 out_1 out_2" intLanes="" shape="157.68,194.24 150.00,200.00"/>

    <connection from="1to2" to="2to3" fromLane="1" toLane="0" via=":n2_0_0" dir="l" state="M"/>
    <connection from="1to2" to="2to3" fromLane="2" toLane="1" via=":n2_1_0" dir="l" state="M"/>
    <connection from="2to3" to="3to4" fromLane="0" toLane="0" via=":n3_0_0" dir="r" state="M"/>
    <connection from="2to3" to="3to4" fromLane="0" toLane="1" via=":n3_1_0" dir="r" state="M"/>
    <connection from="2to3" to="3to4" fromLane="1" toLane="2" via=":n3_2_0" dir="r" state="M"/>
    <connection from="3to4" to="out" fromLane="0" toLane="0" via=":n4_0_0" dir="l" state="M"/>
    <connection from="3to4" to="out" fromLane="1" toLane="1" via=":n4_1_0" dir="l" state="M"/>
    <connection from="3to4" to="out" fromLane="2" toLane="2" via=":n4_2_0" dir="l" state="M"/>

    <connection from=":n2_0" to="2to3" fromLane="0" toLane="0" dir="l" state="M"/>
    <connection from=":n2_1" to="2to3" fromLane="0" toLane="1" dir="l" state="M"/>
    <connection from=":n3_0" to="3to4" fromLane="0" toLane="0" dir="r" state="M"/>
    <connection from=":n3_1" to="3to4" fromLane="0" toLane="1" dir="r" state="M"/>
    <connection from=":n3_2" to="3to4" fromLane="0" toLane="2" dir="r" state="M"/>
    <connection from=":n4_0" to="out" fromLane="0" toLane="0" dir="l" state="M"/>
    <connection from=":n4_1" to="out" fromLane="0" toLane="1" dir="l" state="M"/>
    <connection from=":n4_2" to="out" fromLane="0" toLane="2" dir="l" state="M"/>

</net>
